Circuit: * C:\Users\Eli.Mattingly\Documents\GitHub\TPA3255_ClassD_PBTL\OutputFilt.asc

.OP point found by inspection.

Date: Thu Sep 12 09:05:09 2024
Total elapsed time: 0.097 seconds.

tnom = 27
temp = 27
method = trap
totiter = 0
traniter = 0
tranpoints = 0
accept = 0
rejected = 0
matrix size = 6
fillins = 1
solver = Normal
Avg thread counts: 12.0/0.0/0.0/1.4
Matrix Compiler1:      15 opcodes
Matrix Compiler2:      34 opcodes
